/*--------------------------------*- C++ -*----------------------------------*\
| =========                 |                                                 |
| \\      /  F ield         | OpenFOAM: The Open Source CFD Toolbox           |
|  \\    /   O peration     | Version:  v2212                                 |
|   \\  /    A nd           | Website:  www.openfoam.com                      |
|    \\/     M anipulation  |                                                 |
\*---------------------------------------------------------------------------*/
FoamFile
{
    version     2.0;
    format      ascii;
    class       volVectorField;
    object      U;
}
// * * * * * * * * * * * * * * * * * * * * * * * * * * * * * * * * * * * * * //

dimensions      [0 1 -1 0 0 0 0];

internalField   uniform (2.0 0 0);

boundaryField
{
    inlet
    {
        type            freestreamVelocity;
        freestreamValue $internalField;
    }

    outlet
    {
        type            zeroGradient;
    }

    wall
    {
        type            noSlip;
    }

    frontandback
    {
        type            empty;
    }

    top
    {
	type            symmetry;
    }

    bottom
    {
	type            symmetry;
    }
}


// ************************************************************************* //
